reduced_networks/ieee37/67pct/dss/Loads.dss
! Original load models relocated and rebased in per unit
new Load.s701a Bus1="701.1.2" Phases=1 Conn="delta" Model=1 kV=4.8 kW=140 kvar=70
new Load.s701b Bus1="701.2.3" Phases=1 Conn="delta" Model=1 kV=4.8 kW=140 kvar=70
new Load.s701c Bus1="701.3.1" Phases=1 Conn="delta" Model=1 kV=4.8 kW=350 kvar=175
new Load.s712c Bus1="702.3.1" Phases=1 Conn="delta" Model=1 kV=4.8 kW=85 kvar=40
new Load.s713c Bus1="702.3.1" Phases=1 Conn="delta" Model=1 kV=4.8 kW=85 kvar=40
new Load.s714a Bus1="704.1.2" Phases=1 Conn="delta" Model=4 kV=4.8 kW=17 kvar=8
new Load.s714b Bus1="704.2.3" Phases=1 Conn="delta" Model=4 kV=4.8 kW=21 kvar=10
new Load.s718a Bus1="704.1.2" Phases=1 Conn="delta" Model=2 kV=4.8 kW=85 kvar=40
new Load.s720c Bus1="720.3.1" Phases=1 Conn="delta" Model=1 kV=4.8 kW=85 kvar=40
new Load.s722b Bus1="707.2.3" Phases=1 Conn="delta" Model=4 kV=4.8 kW=140 kvar=70
new Load.s722c Bus1="707.3.1" Phases=1 Conn="delta" Model=4 kV=4.8 kW=21 kvar=10
new Load.s724b Bus1="707.2.3" Phases=1 Conn="delta" Model=2 kV=4.8 kW=42 kvar=21
new Load.s725b Bus1="720.2.3" Phases=1 Conn="delta" Model=1 kV=4.8 kW=42 kvar=21
new Load.s727c Bus1="703.3.1" Phases=1 Conn="delta" Model=1 kV=4.8 kW=42 kvar=21
new Load.s728 Bus1="703" Phases=3 Conn="delta" Model=1 kV=4.8 kW=126 kvar=63
new Load.s729a Bus1="703.1.2" Phases=1 Conn="delta" Model=4 kV=4.8 kW=42 kvar=21
new Load.s730c Bus1="730.3.1" Phases=1 Conn="delta" Model=2 kV=4.8 kW=85 kvar=40
new Load.s731b Bus1="730.2.3" Phases=1 Conn="delta" Model=2 kV=4.8 kW=85 kvar=40
new Load.s732c Bus1="708.3.1" Phases=1 Conn="delta" Model=1 kV=4.8 kW=42 kvar=21
new Load.s733a Bus1="708.1.2" Phases=1 Conn="delta" Model=4 kV=4.8 kW=85 kvar=40
new Load.s734c Bus1="734.3.1" Phases=1 Conn="delta" Model=1 kV=4.8 kW=42 kvar=21
new Load.s735c Bus1="734.3.1" Phases=1 Conn="delta" Model=1 kV=4.8 kW=85 kvar=40
new Load.s736b Bus1="734.2.3" Phases=1 Conn="delta" Model=2 kV=4.8 kW=42 kvar=21
new Load.s737a Bus1="737.1.2" Phases=1 Conn="delta" Model=4 kV=4.8 kW=140 kvar=70
new Load.s738a Bus1="737.1.2" Phases=1 Conn="delta" Model=1 kV=4.8 kW=126 kvar=62
new Load.s740c Bus1="737.3.1" Phases=1 Conn="delta" Model=1 kV=4.8 kW=85 kvar=40
new Load.s741c Bus1="737.3.1" Phases=1 Conn="delta" Model=4 kV=4.8 kW=42 kvar=21
new Load.s742a Bus1="702.1.2" Phases=1 Conn="delta" Model=2 kV=4.8 kW=8 kvar=4
new Load.s742b Bus1="702.2.3" Phases=1 Conn="delta" Model=2 kV=4.8 kW=85 kvar=40
new Load.s744a Bus1="703.1.2" Phases=1 Conn="delta" Model=1 kV=4.8 kW=42 kvar=21
